Circuit: * C:\Users\bohda\Desktop\Korot lab\LTSpice Lab2\Draft2.asc

.OP point found by inspection.

Date: Sun Mar 22 15:30:58 2020
Total elapsed time: 0.081 seconds.

tnom = 27
temp = 27
method = modified trap
totiter = 2090
traniter = 2090
tranpoints = 1046
accept = 1046
rejected = 0
matrix size = 8
fillins = 0
solver = Normal
Matrix Compiler1: 318 bytes object code size  0.1/0.1/[0.0]
Matrix Compiler2: 574 bytes object code size  0.1/0.1/[0.1]

