Circuit: * C:\Users\bohda\Desktop\Korot lab\LTSpice Lab2\Draft3.asc

.OP point found by inspection.

Date: Thu Mar 19 21:31:14 2020
Total elapsed time: 0.064 seconds.

tnom = 27
temp = 27
method = modified trap
totiter = 8230
traniter = 8230
tranpoints = 2955
accept = 2249
rejected = 706
matrix size = 6
fillins = 0
solver = Normal
Matrix Compiler1:      12 opcodes  0.1/[0.1]/0.1
Matrix Compiler2: off  [0.1]/0.1/0.1

