Circuit: * C:\Users\bohda\Desktop\Korot lab\LTSpice Lab2\Draft5.asc


Date: Wed Mar 25 12:35:49 2020
Total elapsed time: 0.024 seconds.

tnom = 27
temp = 27
method = trap
totiter = 0
traniter = 0
tranpoints = 0
accept = 0
rejected = 0
matrix size = 3
fillins = 1
solver = Normal

