Circuit: * C:\Users\bohda\Desktop\Korot lab\LTSpice Lab2\Draft6.asc

.OP point found by inspection.

Date: Thu Mar 26 17:42:39 2020
Total elapsed time: 0.033 seconds.

tnom = 27
temp = 27
method = modified trap
totiter = 2082
traniter = 2082
tranpoints = 1042
accept = 1042
rejected = 0
matrix size = 2
fillins = 0
solver = Normal
Matrix Compiler1: 36 bytes object code size  0.0/0.0/[0.0]
Matrix Compiler2: 96 bytes object code size  0.0/0.0/[0.0]

