Circuit: * C:\Users\bohda\Desktop\Korot lab\LTSpice Lab2\Draft4.asc

.OP point found by inspection.

Date: Thu Mar 19 22:35:44 2020
Total elapsed time: 0.097 seconds.

tnom = 27
temp = 27
method = modified trap
totiter = 2082
traniter = 2082
tranpoints = 1042
accept = 1042
rejected = 0
matrix size = 4
fillins = 0
solver = Normal
Matrix Compiler1: 100 bytes object code size  0.1/0.0/[0.0]
Matrix Compiler2: 248 bytes object code size  0.0/0.0/[0.0]

