Circuit: * C:\Users\bohda\Desktop\Korot lab\LTSpice Lab2\Draft1.asc

.OP point found by inspection.

Date: Wed Apr 08 18:16:20 2020
Total elapsed time: 0.073 seconds.

tnom = 27
temp = 27
method = modified trap
totiter = 2271
traniter = 2271
tranpoints = 1117
accept = 1094
rejected = 23
matrix size = 4
fillins = 0
solver = Normal
Matrix Compiler1: 100 bytes object code size  0.1/0.0/[0.0]
Matrix Compiler2: 248 bytes object code size  0.0/0.1/[0.0]

