Circuit: * C:\Users\bohda\Desktop\Korot lab\otk1\dan\Draft1.asc


Date: Mon May 25 11:06:17 2020
Total elapsed time: 0.030 seconds.

tnom = 27
temp = 27
method = trap
totiter = 0
traniter = 0
tranpoints = 0
accept = 0
rejected = 0
matrix size = 3
fillins = 0
solver = Normal

