Circuit: * C:\Users\bohda\Desktop\Korot lab\otk2\Draft1.asc


Date: Mon Apr 20 20:54:12 2020
Total elapsed time: 0.028 seconds.

tnom = 27
temp = 27
method = trap
totiter = 0
traniter = 0
tranpoints = 0
accept = 0
rejected = 0
matrix size = 4
fillins = 0
solver = Normal

