Circuit: * C:\Users\bohda\Desktop\Laba1\Draft3.asc

.OP point found by inspection.

Date: Thu Feb 13 21:29:08 2020
Total elapsed time: 0.041 seconds.

tnom = 27
temp = 27
method = modified trap
totiter = 2586
traniter = 2586
tranpoints = 1294
accept = 1152
rejected = 142
matrix size = 3
fillins = 0
solver = Normal
Matrix Compiler1: off  [0.0]/0.0/0.0
Matrix Compiler2: off  [0.0]/0.0/0.0

