Circuit: * C:\Users\bohda\Desktop\Korot lab\LTSpice Lab1\Draft1.asc


Date: Tue Mar 24 14:41:55 2020
Total elapsed time: 0.040 seconds.

tnom = 27
temp = 27
method = trap
totiter = 0
traniter = 0
tranpoints = 0
accept = 0
rejected = 0
matrix size = 3
fillins = 0
solver = Normal

