Circuit: * C:\Users\bohda\Desktop\Korot lab\otk3\Draft4.asc

WARNING: Node N003 is floating.


Date: Wed May 13 18:36:31 2020
Total elapsed time: 0.026 seconds.

tnom = 27
temp = 27
method = trap
totiter = 0
traniter = 0
tranpoints = 0
accept = 0
rejected = 0
matrix size = 4
fillins = 0
solver = Normal

