Circuit: * C:\Users\bohda\Desktop\Korot lab\otk3\Draft2.asc


Date: Wed May 13 19:05:25 2020
Total elapsed time: 0.037 seconds.

tnom = 27
temp = 27
method = trap
totiter = 0
traniter = 0
tranpoints = 0
accept = 0
rejected = 0
matrix size = 3
fillins = 1
solver = Normal

