Circuit: * C:\Users\bohda\Desktop\Korot lab\otk3\Draft5.asc

.OP point found by inspection.

Date: Thu May 14 16:51:14 2020
Total elapsed time: 0.059 seconds.

tnom = 27
temp = 27
method = modified trap
totiter = 2098
traniter = 2098
tranpoints = 1050
accept = 1049
rejected = 1
matrix size = 4
fillins = 0
solver = Normal
Matrix Compiler1: 100 bytes object code size  0.0/0.0/[0.0]
Matrix Compiler2:      21 opcodes  0.0/[0.0]/0.1

