Circuit: * C:\Users\bohda\Desktop\Korot lab\AE Lab 3\Draft2.asc

.step v1=1.7
.step v1=1.8
.step v1=1.9
.step v1=2
.step v1=2.1

Date: Thu Mar 26 20:09:38 2020
Total elapsed time: 0.094 seconds.

tnom = 27
temp = 27
method = trap
totiter = 1025
traniter = 0
tranpoints = 0
accept = 0
rejected = 0
matrix size = 7
fillins = 0
solver = Normal
Matrix Compiler1:      13 opcodes  0.1/[0.0]/0.0
Matrix Compiler2: 481 bytes object code size  0.1/0.1/[0.0]

