Circuit: * C:\Users\bohda\Desktop\Korot lab\AE 3lab\Draft1.asc

.OP point found by inspection.

Date: Fri Mar 20 21:31:07 2020
Total elapsed time: 0.042 seconds.

tnom = 27
temp = 27
method = trap
totiter = 84
traniter = 0
tranpoints = 0
accept = 0
rejected = 0
matrix size = 5
fillins = 0
solver = Normal
Matrix Compiler1: 168 bytes object code size
Matrix Compiler2: 349 bytes object code size
