Circuit: * C:\Users\bohda\Desktop\Korot lab\AE Lab 3\Draft3.asc

WARNING: Node NC_01 is floating.

WARNING: Less than two connections to node NC_01.  This node is used by C2.
Instance "m:u1:2": Length shorter than recommended for a level 3 MOSFET.
Instance "m:u1:1": Length shorter than recommended for a level 3 MOSFET.
Direct Newton iteration for .op point succeeded.

Date: Fri May 08 14:32:38 2020
Total elapsed time: 0.042 seconds.

tnom = 27
temp = 27
method = modified trap
totiter = 2106
traniter = 2099
tranpoints = 1046
accept = 1045
rejected = 1
matrix size = 13
fillins = 5
solver = Normal
Matrix Compiler1: 1.10 KB object code size  0.2/0.1/[0.1]
Matrix Compiler2: 1.11 KB object code size  0.1/0.1/[0.1]

